benzaldehyde
     RDKit          3D

 14 14  0  0  0  0  0  0  0  0999 V2000
    0.1293    1.1388    0.3208 C   0  0  0  0  0  0  0  0  0  0  0  0
   -1.2484    1.0765    0.3884 C   0  0  0  0  0  0  0  0  0  0  0  0
   -1.9264   -0.0906    0.0936 C   0  0  0  0  0  0  0  0  0  0  0  0
   -1.1584   -1.1812   -0.2690 C   0  0  0  0  0  0  0  0  0  0  0  0
    0.2195   -1.1199   -0.3370 C   0  0  0  0  0  0  0  0  0  0  0  0
    0.8894    0.0481   -0.0414 C   0  0  0  0  0  0  0  0  0  0  0  0
    2.3546    0.1353   -0.1073 C   0  0  0  0  0  0  0  0  0  0  0  0
    3.0389   -0.8462   -0.4333 O   0  0  0  0  0  0  0  0  0  0  0  0
    0.5995    2.0788    0.5629 H   0  0  0  0  0  0  0  0  0  0  0  0
   -1.8358    1.9443    0.6756 H   0  0  0  0  0  0  0  0  0  0  0  0
   -3.0121   -0.1525    0.1433 H   0  0  0  0  0  0  0  0  0  0  0  0
   -1.7155   -2.0908   -0.4970 H   0  0  0  0  0  0  0  0  0  0  0  0
    0.7948   -1.9961   -0.6258 H   0  0  0  0  0  0  0  0  0  0  0  0
    2.8706    1.0556    0.1263 H   0  0  0  0  0  0  0  0  0  0  0  0
  1  2  2  0
  2  3  1  0
  3  4  2  0
  4  5  1  0
  5  6  2  0
  6  7  1  0
  7  8  2  0
  6  1  1  0
  1  9  1  0
  2 10  1  0
  3 11  1  0
  4 12  1  0
  5 13  1  0
  7 14  1  0
M  END
$$$$
