phenol
  -OEChem-09231909243D

 13 13  0     0  0  0  0  0  0999 V2000
    1.8851   -1.0363   -0.1124 C   0  0  0  0  0  0  0  0  0  0  0  0
    0.8066   -0.4630    0.5610 C   0  0  0  0  0  0  0  0  0  0  0  0
    0.7638   -0.4841    1.9551 C   0  0  0  0  0  0  0  0  0  0  0  0
    1.7997   -1.0786    2.6757 C   0  0  0  0  0  0  0  0  0  0  0  0
    2.8783   -1.6520    2.0022 C   0  0  0  0  0  0  0  0  0  0  0  0
    2.9210   -1.6309    0.6081 C   0  0  0  0  0  0  0  0  0  0  0  0
    1.9270   -1.0156   -1.4726 O   0  0  0  0  0  0  0  0  0  0  0  0
   -0.0034    0.0014    0.0052 H   0  0  0  0  0  0  0  0  0  0  0  0
   -0.0756   -0.0370    2.4799 H   0  0  0  0  0  0  0  0  0  0  0  0
    1.7671   -1.0935    3.7610 H   0  0  0  0  0  0  0  0  0  0  0  0
    3.6852   -2.1140    2.5634 H   0  0  0  0  0  0  0  0  0  0  0  0
    3.7642   -2.0784    0.0892 H   0  0  0  0  0  0  0  0  0  0  0  0
    1.1407   -0.5704   -1.8267 H   0  0  0  0  0  0  0  0  0  0  0  0
  1  2  2  0  0  0  0
  2  3  1  0  0  0  0
  3  4  2  0  0  0  0
  4  5  1  0  0  0  0
  5  6  2  0  0  0  0
  1  6  1  0  0  0  0
  1  7  1  0  0  0  0
  2  8  1  0  0  0  0
  3  9  1  0  0  0  0
  4 10  1  0  0  0  0
  5 11  1  0  0  0  0
  6 12  1  0  0  0  0
  7 13  1  0  0  0  0
M  END
$$$$
