phenol
     RDKit          3D

 13 13  0  0  0  0  0  0  0  0999 V2000
    0.6797    1.0114   -0.2019 C   0  0  0  0  0  0  0  0  0  0  0  0
   -0.6452    1.3893   -0.1371 C   0  0  0  0  0  0  0  0  0  0  0  0
   -1.6364    0.4269    0.0155 C   0  0  0  0  0  0  0  0  0  0  0  0
   -1.2511   -0.8996    0.0984 C   0  0  0  0  0  0  0  0  0  0  0  0
    0.0871   -1.2538    0.0307 C   0  0  0  0  0  0  0  0  0  0  0  0
    1.0774   -0.3068   -0.1205 C   0  0  0  0  0  0  0  0  0  0  0  0
    2.4344   -0.6517   -0.1904 O   0  0  0  0  0  0  0  0  0  0  0  0
    1.4636    1.7614   -0.3216 H   0  0  0  0  0  0  0  0  0  0  0  0
   -0.9478    2.4382   -0.2028 H   0  0  0  0  0  0  0  0  0  0  0  0
   -2.6657    0.7513    0.0633 H   0  0  0  0  0  0  0  0  0  0  0  0
   -1.9991   -1.6698    0.2173 H   0  0  0  0  0  0  0  0  0  0  0  0
    0.4106   -2.2922    0.0940 H   0  0  0  0  0  0  0  0  0  0  0  0
    2.9926   -0.7046    0.6549 H   0  0  0  0  0  0  0  0  0  0  0  0
  1  2  2  0
  2  3  1  0
  3  4  2  0
  4  5  1  0
  5  6  2  0
  6  7  1  0
  6  1  1  0
  1  8  1  0
  2  9  1  0
  3 10  1  0
  4 11  1  0
  5 12  1  0
  7 13  1  0
M  END
$$$$
