phenol
  -OEChem-09241916163D

 13 13  0     0  0  0  0  0  0999 V2000
    1.8851   -1.0363   -0.1124 C   0  0  0  0  0  0  0  0  0  0  0  0
    2.9210   -1.6309    0.6081 C   0  0  0  0  0  0  0  0  0  0  0  0
    2.8783   -1.6520    2.0022 C   0  0  0  0  0  0  0  0  0  0  0  0
    1.7997   -1.0786    2.6757 C   0  0  0  0  0  0  0  0  0  0  0  0
    0.7638   -0.4841    1.9551 C   0  0  0  0  0  0  0  0  0  0  0  0
    0.8066   -0.4630    0.5610 C   0  0  0  0  0  0  0  0  0  0  0  0
   -0.2044    0.1163   -0.1424 O   0  0  0  0  0  0  0  0  0  0  0  0
    1.9236   -1.0239   -1.1983 H   0  0  0  0  0  0  0  0  0  0  0  0
    3.7603   -2.0784    0.0838 H   0  0  0  0  0  0  0  0  0  0  0  0
    3.6855   -2.1142    2.5634 H   0  0  0  0  0  0  0  0  0  0  0  0
    1.7663   -1.0948    3.7612 H   0  0  0  0  0  0  0  0  0  0  0  0
   -0.0748   -0.0414    2.4855 H   0  0  0  0  0  0  0  0  0  0  0  0
   -0.8768    0.4679    0.4627 H   0  0  0  0  0  0  0  0  0  0  0  0
  1  6  2  0  0  0  0
  1  2  1  0  0  0  0
  2  3  2  0  0  0  0
  3  4  1  0  0  0  0
  4  5  2  0  0  0  0
  5  6  1  0  0  0  0
  6  7  1  0  0  0  0
  1  8  1  0  0  0  0
  2  9  1  0  0  0  0
  3 10  1  0  0  0  0
  4 11  1  0  0  0  0
  5 12  1  0  0  0  0
  7 13  1  0  0  0  0
M  END
$$$$
