acetone
  -OEChem-09231909243D

 10  9  0     0  0  0  0  0  0999 V2000
   -0.7025   -0.4113    0.7289 C   0  0  0  0  0  0  0  0  0  0  0  0
   -0.0565   -0.4470    2.0875 C   0  0  0  0  0  0  0  0  0  0  0  0
    0.3848    0.8720    2.6618 C   0  0  0  0  0  0  0  0  0  0  0  0
    0.1012   -1.5023    2.6993 O   0  0  0  0  0  0  0  0  0  0  0  0
    0.0630   -0.5189   -0.0436 H   0  0  0  0  0  0  0  0  0  0  0  0
   -1.4345   -1.2187    0.6501 H   0  0  0  0  0  0  0  0  0  0  0  0
   -1.2142    0.5449    0.5888 H   0  0  0  0  0  0  0  0  0  0  0  0
   -0.4296    1.3116    3.2444 H   0  0  0  0  0  0  0  0  0  0  0  0
    0.6478    1.5552    1.8505 H   0  0  0  0  0  0  0  0  0  0  0  0
    1.2448    0.7166    3.3178 H   0  0  0  0  0  0  0  0  0  0  0  0
  1  2  1  0  0  0  0
  2  3  1  0  0  0  0
  2  4  2  0  0  0  0
  1  5  1  0  0  0  0
  1  6  1  0  0  0  0
  1  7  1  0  0  0  0
  3  8  1  0  0  0  0
  3  9  1  0  0  0  0
  3 10  1  0  0  0  0
M  END
$$$$
