lig_21
                    3D
 Schrodinger Suite 2021-1.
 49 52  0  0  1  0            999 V2000
   11.3549   46.8532   52.1967 H   0  0  0  0  0  0
   10.5417   46.2976   51.7416 C   0  0  0  0  0  0
    9.2845   46.5303   52.0484 N   0  0  0  0  0  0
    8.6229   45.6514   51.2168 C   0  0  0  0  0  0
    7.2656   45.3564   51.0298 C   0  0  0  0  0  0
    6.2788   45.9122   51.8186 O   0  0  0  0  0  0
    4.9369   45.5498   51.5069 C   0  0  0  0  0  0
    4.8450   44.4927   51.2549 H   0  0  0  0  0  0
    4.6379   46.1281   50.6333 H   0  0  0  0  0  0
    3.9522   45.8197   52.6466 C   0  0  0  0  0  0
    4.2075   46.7818   53.0931 H   0  0  0  0  0  0
    2.5418   45.8801   52.0260 C   0  0  0  0  0  0
    2.3493   44.9621   51.4717 H   0  0  0  0  0  0
    2.4897   46.6892   51.2991 H   0  0  0  0  0  0
    1.4491   46.0706   53.0787 C   0  0  0  0  0  0
    0.4696   46.0661   52.5976 H   0  0  0  0  0  0
    1.5634   47.0503   53.5434 H   0  0  0  0  0  0
    1.5109   44.9795   54.1574 C   0  0  0  0  0  0
    1.2664   44.0129   53.7163 H   0  0  0  0  0  0
    0.7537   45.1717   54.9176 H   0  0  0  0  0  0
    2.9067   44.9169   54.8035 C   0  0  0  0  0  0
    2.9408   44.0990   55.5234 H   0  0  0  0  0  0
    3.0903   45.8289   55.3714 H   0  0  0  0  0  0
    4.0136   44.7292   53.7474 C   0  0  0  0  0  0
    4.9900   44.7388   54.2337 H   0  0  0  0  0  0
    3.9082   43.7416   53.2970 H   0  0  0  0  0  0
    6.9356   44.4452   50.0799 N   0  0  0  0  0  0
    7.9063   43.8109   49.3933 C   0  0  0  0  0  0
    7.4906   42.8117   48.5442 N   0  0  0  0  0  0
    8.2179   42.4812   47.9227 H   0  0  0  0  0  0
    6.3275   42.0329   48.5804 C   0  0  0  0  0  0
    5.7125   41.7127   49.8033 C   0  0  0  0  0  0
    6.1580   42.0236   50.7366 H   0  0  0  0  0  0
    4.5009   41.0164   49.8185 C   0  0  0  0  0  0
    4.0168   40.7970   50.7598 H   0  0  0  0  0  0
    3.9208   40.6004   48.6061 C   0  0  0  0  0  0
    2.9879   40.0580   48.6265 H   0  0  0  0  0  0
    4.5620   40.8562   47.3795 C   0  0  0  0  0  0
    3.9359   40.3940   46.2433 O   0  0  0  0  0  0
    4.5549   40.6707   44.9937 C   0  0  0  0  0  0
    3.9323   40.2761   44.1934 H   0  0  0  0  0  0
    4.6597   41.7451   44.8328 H   0  0  0  0  0  0
    5.5355   40.1966   44.9221 H   0  0  0  0  0  0
    5.7747   41.5781   47.3727 C   0  0  0  0  0  0
    6.2910   41.8036   46.4519 H   0  0  0  0  0  0
    9.2286   43.9887   49.4750 N   0  0  0  0  0  0
    9.5234   44.9124   50.4198 C   0  0  0  0  0  0
   10.7446   45.3456   50.8235 N   0  0  0  0  0  0
   11.6628   45.0631   50.4688 H   0  0  0  0  0  0
  1  2  1  0  0  0
  2 48  1  0  0  0
  2  3  2  0  0  0
  3  4  1  0  0  0
  4 47  1  0  0  0
  4  5  2  0  0  0
  5  6  1  0  0  0
  5 27  1  0  0  0
  6  7  1  0  0  0
  7  8  1  0  0  0
  7  9  1  0  0  0
  7 10  1  0  0  0
 10 24  1  0  0  0
 10 11  1  0  0  0
 10 12  1  0  0  0
 12 13  1  0  0  0
 12 14  1  0  0  0
 12 15  1  0  0  0
 15 16  1  0  0  0
 15 17  1  0  0  0
 15 18  1  0  0  0
 18 19  1  0  0  0
 18 20  1  0  0  0
 18 21  1  0  0  0
 21 22  1  0  0  0
 21 23  1  0  0  0
 21 24  1  0  0  0
 24 25  1  0  0  0
 24 26  1  0  0  0
 27 28  2  0  0  0
 28 29  1  0  0  0
 28 46  1  0  0  0
 29 30  1  0  0  0
 29 31  1  0  0  0
 31 44  1  0  0  0
 31 32  2  0  0  0
 32 33  1  0  0  0
 32 34  1  0  0  0
 34 35  1  0  0  0
 34 36  2  0  0  0
 36 37  1  0  0  0
 36 38  1  0  0  0
 38 39  1  0  0  0
 38 44  2  0  0  0
 39 40  1  0  0  0
 40 41  1  0  0  0
 40 42  1  0  0  0
 40 43  1  0  0  0
 44 45  1  0  0  0
 46 47  2  0  0  0
 47 48  1  0  0  0
 48 49  1  0  0  0
M  END
$$$$
