lig_20
                    3D
 Schrodinger Suite 2021-1.
 49 52  0  0  1  0            999 V2000
    4.2776   38.4585   46.2874 H   0  0  0  0  0  0
    3.5083   39.0031   46.1848 O   0  0  0  0  0  0
    3.9492   40.3416   46.0990 C   0  0  0  0  0  0
    4.6773   40.4216   45.2902 H   0  0  0  0  0  0
    3.1090   40.9862   45.8394 H   0  0  0  0  0  0
    4.5582   40.8369   47.3970 C   0  0  0  0  0  0
    3.9110   40.5909   48.6211 C   0  0  0  0  0  0
    2.9773   40.0449   48.6481 H   0  0  0  0  0  0
    4.4888   41.0142   49.8258 C   0  0  0  0  0  0
    4.0057   40.7959   50.7706 H   0  0  0  0  0  0
    5.6980   41.7147   49.8073 C   0  0  0  0  0  0
    6.1422   42.0300   50.7418 H   0  0  0  0  0  0
    6.3100   42.0349   48.5776 C   0  0  0  0  0  0
    7.4689   42.8130   48.5409 N   0  0  0  0  0  0
    8.1680   42.4636   47.9004 H   0  0  0  0  0  0
    7.8969   43.8114   49.3869 C   0  0  0  0  0  0
    6.9303   44.4455   50.0749 N   0  0  0  0  0  0
    7.2597   45.3550   51.0247 C   0  0  0  0  0  0
    6.2784   45.9108   51.8136 O   0  0  0  0  0  0
    4.9367   45.5445   51.5047 C   0  0  0  0  0  0
    4.6321   46.1044   50.6204 H   0  0  0  0  0  0
    4.8544   44.4817   51.2692 H   0  0  0  0  0  0
    3.9511   45.8165   52.6423 C   0  0  0  0  0  0
    4.2052   46.7775   53.0910 H   0  0  0  0  0  0
    2.5421   45.8792   52.0199 C   0  0  0  0  0  0
    2.4925   46.6918   51.2941 H   0  0  0  0  0  0
    2.3503   44.9632   51.4614 H   0  0  0  0  0  0
    1.4478   46.0687   53.0706 C   0  0  0  0  0  0
    1.5625   47.0464   53.5372 H   0  0  0  0  0  0
    0.4699   46.0671   52.5883 H   0  0  0  0  0  0
    1.5074   44.9746   54.1451 C   0  0  0  0  0  0
    0.7482   45.1632   54.9031 H   0  0  0  0  0  0
    1.2665   44.0086   53.6993 H   0  0  0  0  0  0
    2.9004   44.9143   54.7964 C   0  0  0  0  0  0
    3.0822   45.8305   55.3579 H   0  0  0  0  0  0
    2.9338   44.0997   55.5207 H   0  0  0  0  0  0
    4.0100   44.7251   53.7435 C   0  0  0  0  0  0
    3.9069   43.7370   53.2932 H   0  0  0  0  0  0
    4.9847   44.7336   54.2316 H   0  0  0  0  0  0
    8.6180   45.6500   51.2150 C   0  0  0  0  0  0
    9.2739   46.5250   52.0556 N   0  0  0  0  0  0
   10.5371   46.2910   51.7460 C   0  0  0  0  0  0
   11.3459   46.8420   52.2073 H   0  0  0  0  0  0
   10.7400   45.3370   50.8203 N   0  0  0  0  0  0
   11.6582   45.0538   50.4666 H   0  0  0  0  0  0
    9.5192   44.9035   50.4113 C   0  0  0  0  0  0
    9.2183   43.9832   49.4681 N   0  0  0  0  0  0
    5.7588   41.5644   47.3769 C   0  0  0  0  0  0
    6.2522   41.7689   46.4338 H   0  0  0  0  0  0
  1  2  1  0  0  0
  2  3  1  0  0  0
  3  4  1  0  0  0
  3  5  1  0  0  0
  3  6  1  0  0  0
  6 48  1  0  0  0
  6  7  2  0  0  0
  7  8  1  0  0  0
  7  9  1  0  0  0
  9 10  1  0  0  0
  9 11  2  0  0  0
 11 12  1  0  0  0
 11 13  1  0  0  0
 13 14  1  0  0  0
 13 48  2  0  0  0
 14 15  1  0  0  0
 14 16  1  0  0  0
 16 47  1  0  0  0
 16 17  2  0  0  0
 17 18  1  0  0  0
 18 19  1  0  0  0
 18 40  2  0  0  0
 19 20  1  0  0  0
 20 21  1  0  0  0
 20 22  1  0  0  0
 20 23  1  0  0  0
 23 37  1  0  0  0
 23 24  1  0  0  0
 23 25  1  0  0  0
 25 26  1  0  0  0
 25 27  1  0  0  0
 25 28  1  0  0  0
 28 29  1  0  0  0
 28 30  1  0  0  0
 28 31  1  0  0  0
 31 32  1  0  0  0
 31 33  1  0  0  0
 31 34  1  0  0  0
 34 35  1  0  0  0
 34 36  1  0  0  0
 34 37  1  0  0  0
 37 38  1  0  0  0
 37 39  1  0  0  0
 40 46  1  0  0  0
 40 41  1  0  0  0
 41 42  2  0  0  0
 42 43  1  0  0  0
 42 44  1  0  0  0
 44 45  1  0  0  0
 44 46  1  0  0  0
 46 47  2  0  0  0
 48 49  1  0  0  0
M  END
$$$$
