lig_1h1q
                    3D
 Schrodinger Suite 2021-1.
 45 48  0  0  1  0            999 V2000
   11.3542   46.8350   52.2075 H   0  0  0  0  0  0
   10.5370   46.2896   51.7535 C   0  0  0  0  0  0
    9.2835   46.5255   52.0557 N   0  0  0  0  0  0
    8.6197   45.6502   51.2211 C   0  0  0  0  0  0
    7.2660   45.3534   51.0321 C   0  0  0  0  0  0
    6.2802   45.9063   51.8202 O   0  0  0  0  0  0
    4.9420   45.5192   51.5158 C   0  0  0  0  0  0
    4.8661   44.4520   51.2975 H   0  0  0  0  0  0
    4.6443   46.0652   50.6193 H   0  0  0  0  0  0
    3.9531   45.8039   52.6478 C   0  0  0  0  0  0
    4.2080   46.7653   53.0949 H   0  0  0  0  0  0
    2.5484   45.8777   52.0162 C   0  0  0  0  0  0
    2.3551   44.9663   51.4490 H   0  0  0  0  0  0
    2.5102   46.6946   51.2961 H   0  0  0  0  0  0
    1.4480   46.0701   53.0594 C   0  0  0  0  0  0
    0.4736   46.0740   52.5695 H   0  0  0  0  0  0
    1.5667   47.0474   53.5269 H   0  0  0  0  0  0
    1.4953   44.9749   54.1330 C   0  0  0  0  0  0
    1.2480   44.0100   53.6883 H   0  0  0  0  0  0
    0.7336   45.1726   54.8868 H   0  0  0  0  0  0
    2.8831   44.9044   54.7932 C   0  0  0  0  0  0
    2.9054   44.0851   55.5122 H   0  0  0  0  0  0
    3.0644   45.8159   55.3637 H   0  0  0  0  0  0
    4.0006   44.7158   53.7502 C   0  0  0  0  0  0
    4.9708   44.7277   54.2490 H   0  0  0  0  0  0
    3.9041   43.7250   53.3039 H   0  0  0  0  0  0
    6.9421   44.4395   50.0826 N   0  0  0  0  0  0
    7.9025   43.8114   49.3870 C   0  0  0  0  0  0
    7.4836   42.8130   48.5511 N   0  0  0  0  0  0
    8.0926   42.6510   47.7594 H   0  0  0  0  0  0
    6.3193   42.0293   48.5774 C   0  0  0  0  0  0
    5.7678   41.5695   47.3662 C   0  0  0  0  0  0
    6.2588   41.7823   46.4273 H   0  0  0  0  0  0
    4.5677   40.8450   47.3879 C   0  0  0  0  0  0
    4.1341   40.4983   46.4595 H   0  0  0  0  0  0
    3.9113   40.5909   48.6106 C   0  0  0  0  0  0
    2.9834   40.0415   48.6332 H   0  0  0  0  0  0
    4.4966   41.0101   49.8225 C   0  0  0  0  0  0
    4.0164   40.7884   50.7652 H   0  0  0  0  0  0
    5.7091   41.7054   49.8036 C   0  0  0  0  0  0
    6.1578   42.0175   50.7369 H   0  0  0  0  0  0
    9.2250   43.9864   49.4711 N   0  0  0  0  0  0
    9.5213   44.9106   50.4174 C   0  0  0  0  0  0
   10.7455   45.3364   50.8313 N   0  0  0  0  0  0
   11.6596   45.0628   50.4708 H   0  0  0  0  0  0
  1  2  1  0  0  0
  2 44  1  0  0  0
  2  3  2  0  0  0
  3  4  1  0  0  0
  4 43  1  0  0  0
  4  5  2  0  0  0
  5  6  1  0  0  0
  5 27  1  0  0  0
  6  7  1  0  0  0
  7  8  1  0  0  0
  7  9  1  0  0  0
  7 10  1  0  0  0
 10 24  1  0  0  0
 10 11  1  0  0  0
 10 12  1  0  0  0
 12 13  1  0  0  0
 12 14  1  0  0  0
 12 15  1  0  0  0
 15 16  1  0  0  0
 15 17  1  0  0  0
 15 18  1  0  0  0
 18 19  1  0  0  0
 18 20  1  0  0  0
 18 21  1  0  0  0
 21 22  1  0  0  0
 21 23  1  0  0  0
 21 24  1  0  0  0
 24 25  1  0  0  0
 24 26  1  0  0  0
 27 28  2  0  0  0
 28 29  1  0  0  0
 28 42  1  0  0  0
 29 30  1  0  0  0
 29 31  1  0  0  0
 31 40  1  0  0  0
 31 32  2  0  0  0
 32 33  1  0  0  0
 32 34  1  0  0  0
 34 35  1  0  0  0
 34 36  2  0  0  0
 36 37  1  0  0  0
 36 38  1  0  0  0
 38 39  1  0  0  0
 38 40  2  0  0  0
 40 41  1  0  0  0
 42 43  2  0  0  0
 43 44  1  0  0  0
 44 45  1  0  0  0
M  END
$$$$
