lig_1oiy
                    3D
 Schrodinger Suite 2021-1.
 49 52  0  0  1  0            999 V2000
   11.3654   46.8316   52.2048 H   0  0  0  0  0  0
   10.5499   46.2867   51.7554 C   0  0  0  0  0  0
    9.2858   46.5292   52.0637 N   0  0  0  0  0  0
    8.6244   45.6574   51.2179 C   0  0  0  0  0  0
    7.2657   45.3625   51.0182 C   0  0  0  0  0  0
    6.2774   45.9077   51.8104 O   0  0  0  0  0  0
    4.9411   45.5274   51.4986 C   0  0  0  0  0  0
    4.6606   46.0755   50.5976 H   0  0  0  0  0  0
    4.8432   44.4665   51.2614 H   0  0  0  0  0  0
    3.9443   45.8200   52.6236 C   0  0  0  0  0  0
    4.1648   46.7998   53.0507 H   0  0  0  0  0  0
    2.5304   45.8668   52.0141 C   0  0  0  0  0  0
    2.4625   46.6744   51.2838 H   0  0  0  0  0  0
    2.3326   44.9428   51.4680 H   0  0  0  0  0  0
    1.4480   46.0602   53.0823 C   0  0  0  0  0  0
    1.5755   47.0362   53.5489 H   0  0  0  0  0  0
    0.4596   46.0653   52.6211 H   0  0  0  0  0  0
    1.5240   44.9658   54.1574 C   0  0  0  0  0  0
    0.7669   45.1452   54.9217 H   0  0  0  0  0  0
    1.2967   43.9949   53.7153 H   0  0  0  0  0  0
    2.9183   44.9232   54.8002 C   0  0  0  0  0  0
    3.0922   45.8447   55.3583 H   0  0  0  0  0  0
    2.9680   44.1142   55.5302 H   0  0  0  0  0  0
    4.0207   44.7456   53.7408 C   0  0  0  0  0  0
    3.9280   43.7502   53.3031 H   0  0  0  0  0  0
    4.9999   44.7756   54.2195 H   0  0  0  0  0  0
    6.9550   44.4643   50.0537 N   0  0  0  0  0  0
    7.9184   43.8301   49.3770 C   0  0  0  0  0  0
    7.5109   42.8130   48.5526 N   0  0  0  0  0  0
    8.2436   42.3699   48.0022 H   0  0  0  0  0  0
    6.3497   42.0657   48.5772 C   0  0  0  0  0  0
    5.7428   41.7654   49.8095 C   0  0  0  0  0  0
    6.1842   42.0763   50.7448 H   0  0  0  0  0  0
    4.5427   41.0719   49.8313 C   0  0  0  0  0  0
    4.1036   40.8477   50.7928 H   0  0  0  0  0  0
    4.0020   40.6314   48.6147 C   0  0  0  0  0  0
    2.9393   39.6122   48.6258 C   0  0  0  0  0  0
    2.3679   39.2493   47.5969 O   0  0  0  0  0  0
    2.7084   39.0467   49.8072 N   0  0  0  0  0  0
    3.0066   39.4789   50.6815 H   0  0  0  0  0  0
    2.0414   38.2945   49.8758 H   0  0  0  0  0  0
    4.6153   40.8988   47.3818 C   0  0  0  0  0  0
    4.2237   40.5105   46.4526 H   0  0  0  0  0  0
    5.8064   41.6148   47.3665 C   0  0  0  0  0  0
    6.3029   41.8188   46.4295 H   0  0  0  0  0  0
    9.2350   43.9890   49.4673 N   0  0  0  0  0  0
    9.5290   44.9163   50.4136 C   0  0  0  0  0  0
   10.7546   45.3547   50.8199 N   0  0  0  0  0  0
   11.6712   45.1148   50.4330 H   0  0  0  0  0  0
  1  2  1  0  0  0
  2 48  1  0  0  0
  2  3  2  0  0  0
  3  4  1  0  0  0
  4 47  1  0  0  0
  4  5  2  0  0  0
  5  6  1  0  0  0
  5 27  1  0  0  0
  6  7  1  0  0  0
  7  8  1  0  0  0
  7  9  1  0  0  0
  7 10  1  0  0  0
 10 24  1  0  0  0
 10 11  1  0  0  0
 10 12  1  0  0  0
 12 13  1  0  0  0
 12 14  1  0  0  0
 12 15  1  0  0  0
 15 16  1  0  0  0
 15 17  1  0  0  0
 15 18  1  0  0  0
 18 19  1  0  0  0
 18 20  1  0  0  0
 18 21  1  0  0  0
 21 22  1  0  0  0
 21 23  1  0  0  0
 21 24  1  0  0  0
 24 25  1  0  0  0
 24 26  1  0  0  0
 27 28  2  0  0  0
 28 29  1  0  0  0
 28 46  1  0  0  0
 29 30  1  0  0  0
 29 31  1  0  0  0
 31 44  1  0  0  0
 31 32  2  0  0  0
 32 33  1  0  0  0
 32 34  1  0  0  0
 34 35  1  0  0  0
 34 36  2  0  0  0
 36 37  1  0  0  0
 36 42  1  0  0  0
 37 38  2  0  0  0
 37 39  1  0  0  0
 39 40  1  0  0  0
 39 41  1  0  0  0
 42 43  1  0  0  0
 42 44  2  0  0  0
 44 45  1  0  0  0
 46 47  2  0  0  0
 47 48  1  0  0  0
 48 49  1  0  0  0
M  END
$$$$
