lig_1h1r
                    3D
 Schrodinger Suite 2021-1.
 45 48  0  0  1  0            999 V2000
    4.0052   40.7800   50.7533 H   0  0  0  0  0  0
    4.4898   41.0058   49.8117 C   0  0  0  0  0  0
    5.6990   41.7103   49.7985 C   0  0  0  0  0  0
    6.3115   42.0376   48.5738 C   0  0  0  0  0  0
    5.7642   41.5751   47.3707 C   0  0  0  0  0  0
    4.5630   40.8512   47.3846 C   0  0  0  0  0  0
    3.9148   40.5895   48.6024 C   0  0  0  0  0  0
    2.9803   40.0399   48.6137 H   0  0  0  0  0  0
    3.8577   40.3109   45.9001 Cl  0  0  0  0  0  0
    6.2519   41.7838   46.4246 H   0  0  0  0  0  0
    7.4706   42.8106   48.5352 N   0  0  0  0  0  0
    8.1685   42.4668   47.8966 H   0  0  0  0  0  0
    7.8996   43.8117   49.3891 C   0  0  0  0  0  0
    9.2279   43.9903   49.4717 N   0  0  0  0  0  0
    9.5223   44.9100   50.4129 C   0  0  0  0  0  0
    8.6239   45.6491   51.2149 C   0  0  0  0  0  0
    7.2643   45.3534   51.0287 C   0  0  0  0  0  0
    6.9305   44.4430   50.0800 N   0  0  0  0  0  0
    6.2829   45.9066   51.8179 O   0  0  0  0  0  0
    4.9369   45.5492   51.5065 C   0  0  0  0  0  0
    4.8466   44.4923   51.2508 H   0  0  0  0  0  0
    4.6352   46.1287   50.6342 H   0  0  0  0  0  0
    3.9520   45.8167   52.6466 C   0  0  0  0  0  0
    2.5425   45.8783   52.0287 C   0  0  0  0  0  0
    1.4521   46.0697   53.0837 C   0  0  0  0  0  0
    1.5122   44.9757   54.1607 C   0  0  0  0  0  0
    2.9087   44.9136   54.8057 C   0  0  0  0  0  0
    4.0139   44.7242   53.7484 C   0  0  0  0  0  0
    4.9906   44.7335   54.2339 H   0  0  0  0  0  0
    3.9083   43.7372   53.2970 H   0  0  0  0  0  0
    2.9431   44.0965   55.5266 H   0  0  0  0  0  0
    3.0934   45.8266   55.3719 H   0  0  0  0  0  0
    1.2670   44.0108   53.7171 H   0  0  0  0  0  0
    0.7561   45.1675   54.9221 H   0  0  0  0  0  0
    0.4707   46.0689   52.6058 H   0  0  0  0  0  0
    1.5684   47.0480   53.5516 H   0  0  0  0  0  0
    2.3478   44.9616   51.4731 H   0  0  0  0  0  0
    2.4904   46.6890   51.3044 H   0  0  0  0  0  0
    4.2074   46.7780   53.0955 H   0  0  0  0  0  0
    9.2744   46.5267   52.0552 N   0  0  0  0  0  0
   10.5376   46.2983   51.7415 C   0  0  0  0  0  0
   10.7423   45.3447   50.8172 N   0  0  0  0  0  0
   11.6615   45.0628   50.4653 H   0  0  0  0  0  0
   11.3471   46.8553   52.2052 H   0  0  0  0  0  0
    6.1411   42.0188   50.7347 H   0  0  0  0  0  0
  1  2  1  0  0  0
  2  7  1  0  0  0
  2  3  2  0  0  0
  3  4  1  0  0  0
  3 45  1  0  0  0
  4  5  2  0  0  0
  4 11  1  0  0  0
  5  6  1  0  0  0
  5 10  1  0  0  0
  6  7  2  0  0  0
  6  9  1  0  0  0
  7  8  1  0  0  0
 11 12  1  0  0  0
 11 13  1  0  0  0
 13 18  1  0  0  0
 13 14  2  0  0  0
 14 15  1  0  0  0
 15 42  1  0  0  0
 15 16  2  0  0  0
 16 17  1  0  0  0
 16 40  1  0  0  0
 17 18  2  0  0  0
 17 19  1  0  0  0
 19 20  1  0  0  0
 20 21  1  0  0  0
 20 22  1  0  0  0
 20 23  1  0  0  0
 23 28  1  0  0  0
 23 24  1  0  0  0
 23 39  1  0  0  0
 24 25  1  0  0  0
 24 37  1  0  0  0
 24 38  1  0  0  0
 25 26  1  0  0  0
 25 35  1  0  0  0
 25 36  1  0  0  0
 26 27  1  0  0  0
 26 33  1  0  0  0
 26 34  1  0  0  0
 27 28  1  0  0  0
 27 31  1  0  0  0
 27 32  1  0  0  0
 28 29  1  0  0  0
 28 30  1  0  0  0
 40 41  2  0  0  0
 41 42  1  0  0  0
 41 44  1  0  0  0
 42 43  1  0  0  0
M  END
$$$$
