lig_26
                    3D
 Schrodinger Suite 2021-1.
 49 52  0  0  1  0            999 V2000
   11.3658   46.8356   52.1951 H   0  0  0  0  0  0
   10.5431   46.2910   51.7524 C   0  0  0  0  0  0
    9.2846   46.5271   52.0637 N   0  0  0  0  0  0
    8.6239   45.6580   51.2249 C   0  0  0  0  0  0
    7.2686   45.3635   51.0347 C   0  0  0  0  0  0
    6.2774   45.9192   51.8228 O   0  0  0  0  0  0
    4.9393   45.5504   51.5039 C   0  0  0  0  0  0
    4.8484   44.4907   51.2633 H   0  0  0  0  0  0
    4.6502   46.1205   50.6220 H   0  0  0  0  0  0
    3.9566   45.8282   52.6391 C   0  0  0  0  0  0
    4.2060   46.7912   53.0853 H   0  0  0  0  0  0
    2.5446   45.8851   52.0273 C   0  0  0  0  0  0
    2.3516   44.9650   51.4792 H   0  0  0  0  0  0
    2.4822   46.6918   51.2991 H   0  0  0  0  0  0
    1.4540   46.0731   53.0813 C   0  0  0  0  0  0
    0.4733   46.0625   52.6073 H   0  0  0  0  0  0
    1.5617   47.0545   53.5443 H   0  0  0  0  0  0
    1.5217   44.9804   54.1590 C   0  0  0  0  0  0
    1.2821   44.0121   53.7201 H   0  0  0  0  0  0
    0.7684   45.1708   54.9230 H   0  0  0  0  0  0
    2.9186   44.9256   54.7994 C   0  0  0  0  0  0
    2.9657   44.1180   55.5306 H   0  0  0  0  0  0
    3.1012   45.8440   55.3567 H   0  0  0  0  0  0
    4.0237   44.7419   53.7418 C   0  0  0  0  0  0
    5.0015   44.7549   54.2215 H   0  0  0  0  0  0
    3.9264   43.7507   53.2983 H   0  0  0  0  0  0
    6.9505   44.4517   50.0767 N   0  0  0  0  0  0
    7.9079   43.8268   49.4007 C   0  0  0  0  0  0
    7.4901   42.8111   48.5560 N   0  0  0  0  0  0
    8.2047   42.4951   47.9100 H   0  0  0  0  0  0
    6.3412   42.0478   48.5856 C   0  0  0  0  0  0
    5.8040   41.5998   47.3613 C   0  0  0  0  0  0
    6.2890   41.8036   46.4182 H   0  0  0  0  0  0
    4.6151   40.8758   47.3741 C   0  0  0  0  0  0
    4.2465   40.5608   46.4077 H   0  0  0  0  0  0
    3.9243   40.5973   48.5824 C   0  0  0  0  0  0
    2.7451   39.8772   48.5840 O   0  0  0  0  0  0
    2.3871   39.2554   47.3470 C   0  0  0  0  0  0
    1.4325   38.7491   47.3764 H   0  0  0  0  0  0
    2.2534   39.9826   46.5472 H   0  0  0  0  0  0
    3.1295   38.5108   47.0566 H   0  0  0  0  0  0
    4.4956   41.0236   49.7956 C   0  0  0  0  0  0
    4.0191   40.8066   50.7396 H   0  0  0  0  0  0
    5.7047   41.7207   49.7963 C   0  0  0  0  0  0
    6.1507   42.0321   50.7320 H   0  0  0  0  0  0
    9.2329   43.9895   49.4703 N   0  0  0  0  0  0
    9.5240   44.9117   50.4198 C   0  0  0  0  0  0
   10.7519   45.3348   50.8271 N   0  0  0  0  0  0
   11.6618   45.0701   50.4624 H   0  0  0  0  0  0
  1  2  1  0  0  0
  2 48  1  0  0  0
  2  3  2  0  0  0
  3  4  1  0  0  0
  4 47  1  0  0  0
  4  5  2  0  0  0
  5  6  1  0  0  0
  5 27  1  0  0  0
  6  7  1  0  0  0
  7  8  1  0  0  0
  7  9  1  0  0  0
  7 10  1  0  0  0
 10 24  1  0  0  0
 10 11  1  0  0  0
 10 12  1  0  0  0
 12 13  1  0  0  0
 12 14  1  0  0  0
 12 15  1  0  0  0
 15 16  1  0  0  0
 15 17  1  0  0  0
 15 18  1  0  0  0
 18 19  1  0  0  0
 18 20  1  0  0  0
 18 21  1  0  0  0
 21 22  1  0  0  0
 21 23  1  0  0  0
 21 24  1  0  0  0
 24 25  1  0  0  0
 24 26  1  0  0  0
 27 28  2  0  0  0
 28 29  1  0  0  0
 28 46  1  0  0  0
 29 30  1  0  0  0
 29 31  1  0  0  0
 31 44  1  0  0  0
 31 32  2  0  0  0
 32 33  1  0  0  0
 32 34  1  0  0  0
 34 35  1  0  0  0
 34 36  2  0  0  0
 36 37  1  0  0  0
 36 42  1  0  0  0
 37 38  1  0  0  0
 38 39  1  0  0  0
 38 40  1  0  0  0
 38 41  1  0  0  0
 42 43  1  0  0  0
 42 44  2  0  0  0
 44 45  1  0  0  0
 46 47  2  0  0  0
 47 48  1  0  0  0
 48 49  1  0  0  0
M  END
$$$$
